L6/1726524/Trafos.dss
! ==========================================================
! TRANSFORMADORES DE DISTRIBUICAO — gerados de UNTRMT/EQTRMT
! Secundario 1F/2F: 3 enrolamentos com derivacao central
! Neutro no no 4, aterrado em _ATERRAMENTO.dss
! Kv de BT conforme TEN_LIN_SE da BDGD
! ==========================================================
New Transformer.1082027909_1082027908 phases=3 windings=2 Xhl=4.900
~ wdg=1 bus=node_434919607.1.2.3 conn=delta Kv=13.8 Kva=300.0 %R=0.495
~ wdg=2 bus=node_1349333749.1.2.3.4 conn=wye Kv=0.2200 Kva=300.0 %R=0.495
New Transformer.2323436393_2608566380 phases=3 windings=2 Xhl=4.900
~ wdg=1 bus=node_2589299367.1.2.3 conn=delta Kv=13.8 Kva=300.0 %R=0.495
~ wdg=2 bus=node_2589299309.1.2.3.4 conn=wye Kv=0.2200 Kva=300.0 %R=0.495
New Transformer.330773124_331728977 phases=3 windings=2 Xhl=4.900
~ wdg=1 bus=node_428146727.1.2.3 conn=delta Kv=13.8 Kva=300.0 %R=0.495
~ wdg=2 bus=node_416089391.1.2.3.4 conn=wye Kv=0.2200 Kva=300.0 %R=0.495
New Transformer.331240060_2741495782 phases=3 windings=2 Xhl=4.900
~ wdg=1 bus=node_424636219.1.2.3 conn=delta Kv=13.8 Kva=300.0 %R=0.495
~ wdg=2 bus=node_416249204.1.2.3.4 conn=wye Kv=0.2200 Kva=300.0 %R=0.495
New Transformer.690488126_690488125 phases=3 windings=2 Xhl=4.900
~ wdg=1 bus=node_963152831.1.2.3 conn=delta Kv=13.8 Kva=300.0 %R=0.495
~ wdg=2 bus=node_963152893.1.2.3.4 conn=wye Kv=0.2200 Kva=300.0 %R=0.495
New Transformer.331241439_879995184 phases=3 windings=2 Xhl=4.900
~ wdg=1 bus=node_424633809.1.2.3 conn=delta Kv=13.8 Kva=300.0 %R=0.495
~ wdg=2 bus=node_495295654.1.2.3.4 conn=wye Kv=0.2200 Kva=300.0 %R=0.495
New Transformer.331241782_1452544262 phases=3 windings=2 Xhl=4.900
~ wdg=1 bus=node_428148824.1.2.3 conn=delta Kv=13.8 Kva=300.0 %R=0.495
~ wdg=2 bus=node_418290019.1.2.3.4 conn=wye Kv=0.2200 Kva=300.0 %R=0.495
New Transformer.331241673_1682032837 phases=3 windings=2 Xhl=4.900
~ wdg=1 bus=node_2007303337.1.2.3 conn=delta Kv=13.8 Kva=300.0 %R=0.495
~ wdg=2 bus=node_2007303365.1.2.3.4 conn=wye Kv=0.2200 Kva=300.0 %R=0.495
New Transformer.1664264261_1664264260 phases=3 windings=2 Xhl=4.900
~ wdg=1 bus=node_436826334.1.2.3 conn=delta Kv=13.8 Kva=300.0 %R=0.495
~ wdg=2 bus=node_451322699.1.2.3.4 conn=wye Kv=0.2200 Kva=300.0 %R=0.495
New Transformer.331364342_1391590932 phases=3 windings=2 Xhl=4.900
~ wdg=1 bus=node_429436556.1.2.3 conn=delta Kv=13.8 Kva=300.0 %R=0.495
~ wdg=2 bus=node_413873730.1.2.3.4 conn=wye Kv=0.2200 Kva=300.0 %R=0.495
New Transformer.331571300_331729859 phases=3 windings=2 Xhl=4.900
~ wdg=1 bus=node_424947983.1.2.3 conn=delta Kv=13.8 Kva=300.0 %R=0.495
~ wdg=2 bus=node_528336033.1.2.3.4 conn=wye Kv=0.2200 Kva=300.0 %R=0.495
New Transformer.1546772107_1546772106 phases=3 windings=2 Xhl=4.900
~ wdg=1 bus=node_1866237230.1.2.3 conn=delta Kv=13.8 Kva=300.0 %R=0.495
~ wdg=2 bus=node_1866237108.1.2.3.4 conn=wye Kv=0.2200 Kva=300.0 %R=0.495
New Transformer.1785286846_1785286845 phases=3 windings=2 Xhl=4.900
~ wdg=1 bus=node_2110235956.1.2.3 conn=delta Kv=13.8 Kva=300.0 %R=0.495
~ wdg=2 bus=node_2110235901.1.2.3.4 conn=wye Kv=0.2200 Kva=300.0 %R=0.495
New Transformer.2068540085_2068540086 phases=3 windings=2 Xhl=4.900
~ wdg=1 bus=node_2381396616.1.2.3 conn=delta Kv=13.8 Kva=300.0 %R=0.495
~ wdg=2 bus=node_2381396661.1.2.3.4 conn=wye Kv=0.2200 Kva=300.0 %R=0.495
New Transformer.331472473_331777990 phases=3 windings=2 Xhl=4.900
~ wdg=1 bus=node_428148770.1.2.3 conn=delta Kv=13.8 Kva=300.0 %R=0.495
~ wdg=2 bus=node_411988902.1.2.3.4 conn=wye Kv=0.2200 Kva=300.0 %R=0.495
New Transformer.331471443_331722565 phases=3 windings=2 Xhl=4.900
~ wdg=1 bus=node_429438191.1.2.3 conn=delta Kv=13.8 Kva=300.0 %R=0.495
~ wdg=2 bus=node_482334591.1.2.3.4 conn=wye Kv=0.2200 Kva=300.0 %R=0.495
New Transformer.331473230_331729028 phases=3 windings=2 Xhl=4.900
~ wdg=1 bus=node_424635319.1.2.3 conn=delta Kv=13.8 Kva=300.0 %R=0.495
~ wdg=2 bus=node_499376680.1.2.3.4 conn=wye Kv=0.2200 Kva=300.0 %R=0.495
New Transformer.2581896324_2581896323 phases=3 windings=2 Xhl=4.900
~ wdg=1 bus=node_444880243.1.2.3 conn=delta Kv=13.8 Kva=300.0 %R=0.495
~ wdg=2 bus=node_2733723722.1.2.3.4 conn=wye Kv=0.2200 Kva=300.0 %R=0.495
New Transformer.2572597870_2572597871 phases=3 windings=2 Xhl=4.900
~ wdg=1 bus=node_2724258465.1.2.3 conn=delta Kv=13.8 Kva=300.0 %R=0.495
~ wdg=2 bus=node_2724258479.1.2.3.4 conn=wye Kv=0.2200 Kva=300.0 %R=0.495
New Transformer.331242657_331722564 phases=3 windings=2 Xhl=4.890
~ wdg=1 bus=node_424949763.1.2.3 conn=delta Kv=13.8 Kva=225.0 %R=0.530
~ wdg=2 bus=node_482333954.1.2.3.4 conn=wye Kv=0.2200 Kva=225.0 %R=0.530
New Transformer.331364687_331573729 phases=3 windings=2 Xhl=4.890
~ wdg=1 bus=node_427667660.1.2.3 conn=delta Kv=13.8 Kva=225.0 %R=0.530
~ wdg=2 bus=node_483839877.1.2.3.4 conn=wye Kv=0.2200 Kva=225.0 %R=0.530
New Transformer.416754313_416754312 phases=3 windings=2 Xhl=4.890
~ wdg=1 bus=node_695602359.1.2.3 conn=delta Kv=13.8 Kva=225.0 %R=0.530
~ wdg=2 bus=node_695602347.1.2.3.4 conn=wye Kv=0.2200 Kva=225.0 %R=0.530
New Transformer.2327309613_2327309612 phases=3 windings=2 Xhl=3.840
~ wdg=1 bus=node_2589888727.1.2.3 conn=delta Kv=13.8 Kva=150.0 %R=0.565
~ wdg=2 bus=node_2589888738.1.2.3.4 conn=wye Kv=0.2200 Kva=150.0 %R=0.565
New Transformer.2614707591_2614707590 phases=3 windings=2 Xhl=3.840
~ wdg=1 bus=node_2769189185.1.2.3 conn=delta Kv=13.8 Kva=150.0 %R=0.565
~ wdg=2 bus=node_2769189164.1.2.3.4 conn=wye Kv=0.2200 Kva=150.0 %R=0.565
New Transformer.2663310825_2663310824 phases=3 windings=2 Xhl=4.960
~ wdg=1 bus=node_2915188403.1.2.3 conn=delta Kv=13.8 Kva=150.0 %R=0.305
~ wdg=2 bus=node_2915188484.1.2.3.4 conn=wye Kv=0.2200 Kva=150.0 %R=0.305
New Transformer.2567107787_2567107786 phases=3 windings=2 Xhl=3.840
~ wdg=1 bus=node_424847026.1.2.3 conn=delta Kv=13.8 Kva=150.0 %R=0.565
~ wdg=2 bus=node_464874067.1.2.3.4 conn=wye Kv=0.2200 Kva=150.0 %R=0.565
New Transformer.2548236234_2548236233 phases=3 windings=2 Xhl=3.840
~ wdg=1 bus=node_2783826597.1.2.3 conn=delta Kv=13.8 Kva=150.0 %R=0.565
~ wdg=2 bus=node_2783826527.1.2.3.4 conn=wye Kv=0.2200 Kva=150.0 %R=0.565
New Transformer.2591326520_2591326519 phases=3 windings=2 Xhl=3.840
~ wdg=1 bus=node_2744476829.1.2.3 conn=delta Kv=13.8 Kva=150.0 %R=0.565
~ wdg=2 bus=node_2744476819.1.2.3.4 conn=wye Kv=0.2200 Kva=150.0 %R=0.565
New Transformer.331570803_331779907 phases=3 windings=2 Xhl=3.840
~ wdg=1 bus=node_444788953.1.2.3 conn=delta Kv=13.8 Kva=150.0 %R=0.565
~ wdg=2 bus=node_413829273.1.2.3.4 conn=wye Kv=0.2200 Kva=150.0 %R=0.565
New Transformer.331570952_331777122 phases=3 windings=2 Xhl=3.840
~ wdg=1 bus=node_428149090.1.2.3 conn=delta Kv=13.8 Kva=150.0 %R=0.565
~ wdg=2 bus=node_413790098.1.2.3.4 conn=wye Kv=0.2200 Kva=150.0 %R=0.565
New Transformer.331475001_331573488 phases=3 windings=2 Xhl=3.840
~ wdg=1 bus=node_444880010.1.2.3 conn=delta Kv=13.8 Kva=150.0 %R=0.565
~ wdg=2 bus=node_528219528.1.2.3.4 conn=wye Kv=0.2200 Kva=150.0 %R=0.565
New Transformer.331569909_1439048327 phases=3 windings=2 Xhl=3.840
~ wdg=1 bus=node_1976317846.1.2.3 conn=delta Kv=13.8 Kva=150.0 %R=0.565
~ wdg=2 bus=node_1976317829.1.2.3.4 conn=wye Kv=0.2200 Kva=150.0 %R=0.565
New Transformer.331474955_331721089 phases=3 windings=2 Xhl=3.840
~ wdg=1 bus=node_429651952.1.2.3 conn=delta Kv=13.8 Kva=150.0 %R=0.565
~ wdg=2 bus=node_413848246.1.2.3.4 conn=wye Kv=0.2200 Kva=150.0 %R=0.565
New Transformer.331474710_331722546 phases=3 windings=2 Xhl=3.840
~ wdg=1 bus=node_427667626.1.2.3 conn=delta Kv=13.8 Kva=150.0 %R=0.565
~ wdg=2 bus=node_413873451.1.2.3.4 conn=wye Kv=0.2200 Kva=150.0 %R=0.565
New Transformer.331474713_331766627 phases=3 windings=2 Xhl=3.840
~ wdg=1 bus=node_438224873.1.2.3 conn=delta Kv=13.8 Kva=150.0 %R=0.565
~ wdg=2 bus=node_413811225.1.2.3.4 conn=wye Kv=0.2200 Kva=150.0 %R=0.565
New Transformer.331472903_331731583 phases=3 windings=2 Xhl=3.840
~ wdg=1 bus=node_444949873.1.2.3 conn=delta Kv=13.8 Kva=150.0 %R=0.565
~ wdg=2 bus=node_413848831.1.2.3.4 conn=wye Kv=0.2200 Kva=150.0 %R=0.565
New Transformer.1610924334_1610924333 phases=3 windings=2 Xhl=3.840
~ wdg=1 bus=node_1913702860.1.2.3 conn=delta Kv=13.8 Kva=150.0 %R=0.565
~ wdg=2 bus=node_1913702802.1.2.3.4 conn=wye Kv=0.2200 Kva=150.0 %R=0.565
New Transformer.331472734_331763093 phases=3 windings=2 Xhl=3.840
~ wdg=1 bus=node_444949924.1.2.3 conn=delta Kv=13.8 Kva=150.0 %R=0.565
~ wdg=2 bus=node_528027845.1.2.3.4 conn=wye Kv=0.2200 Kva=150.0 %R=0.565
New Transformer.331471329_331763671 phases=3 windings=2 Xhl=3.840
~ wdg=1 bus=node_425076308.1.2.3 conn=delta Kv=13.8 Kva=150.0 %R=0.565
~ wdg=2 bus=node_416130310.1.2.3.4 conn=wye Kv=0.2200 Kva=150.0 %R=0.565
New Transformer.331471548_331574030 phases=3 windings=2 Xhl=3.840
~ wdg=1 bus=node_424846892.1.2.3 conn=delta Kv=13.8 Kva=150.0 %R=0.565
~ wdg=2 bus=node_501194875.1.2.3.4 conn=wye Kv=0.2200 Kva=150.0 %R=0.565
New Transformer.331471296_472455938 phases=3 windings=2 Xhl=3.840
~ wdg=1 bus=node_427922599.1.2.3 conn=delta Kv=13.8 Kva=150.0 %R=0.565
~ wdg=2 bus=node_413787284.1.2.3.4 conn=wye Kv=0.2200 Kva=150.0 %R=0.565
New Transformer.331471046_331777200 phases=3 windings=2 Xhl=3.840
~ wdg=1 bus=node_444789003.1.2.3 conn=delta Kv=13.8 Kva=150.0 %R=0.565
~ wdg=2 bus=node_413848984.1.2.3.4 conn=wye Kv=0.2200 Kva=150.0 %R=0.565
New Transformer.1792539595_1792539594 phases=3 windings=2 Xhl=3.840
~ wdg=1 bus=node_2116985992.1.2.3 conn=delta Kv=13.8 Kva=150.0 %R=0.565
~ wdg=2 bus=node_2116985777.1.2.3.4 conn=wye Kv=0.2200 Kva=150.0 %R=0.565
New Transformer.331571673_331573843 phases=3 windings=2 Xhl=3.840
~ wdg=1 bus=node_439145417.1.2.3 conn=delta Kv=13.8 Kva=150.0 %R=0.565
~ wdg=2 bus=node_418068422.1.2.3.4 conn=wye Kv=0.2200 Kva=150.0 %R=0.565
New Transformer.2023685054_2023685055 phases=3 windings=2 Xhl=3.840
~ wdg=1 bus=node_2340024103.1.2.3 conn=delta Kv=13.8 Kva=150.0 %R=0.565
~ wdg=2 bus=node_2340023964.1.2.3.4 conn=wye Kv=0.2200 Kva=150.0 %R=0.565
New Transformer.331367196_331573450 phases=3 windings=2 Xhl=3.840
~ wdg=1 bus=node_444880338.1.2.3 conn=delta Kv=13.8 Kva=150.0 %R=0.565
~ wdg=2 bus=node_527839381.1.2.3.4 conn=wye Kv=0.2200 Kva=150.0 %R=0.565
New Transformer.331571566_331766868 phases=3 windings=2 Xhl=3.840
~ wdg=1 bus=node_425076568.1.2.3 conn=delta Kv=13.8 Kva=150.0 %R=0.565
~ wdg=2 bus=node_416170645.1.2.3.4 conn=wye Kv=0.2200 Kva=150.0 %R=0.565
New Transformer.331367160_331766620 phases=3 windings=2 Xhl=3.840
~ wdg=1 bus=node_428147851.1.2.3 conn=delta Kv=13.8 Kva=150.0 %R=0.565
~ wdg=2 bus=node_417229868.1.2.3.4 conn=wye Kv=0.2200 Kva=150.0 %R=0.565
New Transformer.331367221_1764988588 phases=3 windings=2 Xhl=3.840
~ wdg=1 bus=node_437366531.1.2.3 conn=delta Kv=13.8 Kva=150.0 %R=0.565
~ wdg=2 bus=node_417229670.1.2.3.4 conn=wye Kv=0.2200 Kva=150.0 %R=0.565
New Transformer.2014285359_2014285358 phases=3 windings=2 Xhl=3.840
~ wdg=1 bus=node_428146497.1.2.3 conn=delta Kv=13.8 Kva=150.0 %R=0.565
~ wdg=2 bus=node_414337679.1.2.3.4 conn=wye Kv=0.2200 Kva=150.0 %R=0.565
New Transformer.1510663694_1510663693 phases=3 windings=2 Xhl=3.840
~ wdg=1 bus=node_1821678212.1.2.3 conn=delta Kv=13.8 Kva=150.0 %R=0.565
~ wdg=2 bus=node_1821678223.1.2.3.4 conn=wye Kv=0.2200 Kva=150.0 %R=0.565
New Transformer.331365062_331779895 phases=3 windings=2 Xhl=3.840
~ wdg=1 bus=node_425349685.1.2.3 conn=delta Kv=13.8 Kva=150.0 %R=0.565
~ wdg=2 bus=node_418068821.1.2.3.4 conn=wye Kv=0.2200 Kva=150.0 %R=0.565
New Transformer.331364006_331763765 phases=3 windings=2 Xhl=3.840
~ wdg=1 bus=node_434918393.1.2.3 conn=delta Kv=13.8 Kva=150.0 %R=0.565
~ wdg=2 bus=node_501071072.1.2.3.4 conn=wye Kv=0.2200 Kva=150.0 %R=0.565
New Transformer.331364103_331723893 phases=3 windings=2 Xhl=3.840
~ wdg=1 bus=node_427922440.1.2.3 conn=delta Kv=13.8 Kva=150.0 %R=0.565
~ wdg=2 bus=node_413850565.1.2.3.4 conn=wye Kv=0.2200 Kva=150.0 %R=0.565
New Transformer.331364922_331573489 phases=3 windings=2 Xhl=3.840
~ wdg=1 bus=node_444788903.1.2.3 conn=delta Kv=13.8 Kva=150.0 %R=0.565
~ wdg=2 bus=node_496749597.1.2.3.4 conn=wye Kv=0.2200 Kva=150.0 %R=0.565
New Transformer.331243358_331573479 phases=3 windings=2 Xhl=3.840
~ wdg=1 bus=node_428146396.1.2.3 conn=delta Kv=13.8 Kva=150.0 %R=0.565
~ wdg=2 bus=node_413768791.1.2.3.4 conn=wye Kv=0.2200 Kva=150.0 %R=0.565
New Transformer.971676411_1629182246 phases=3 windings=2 Xhl=3.840
~ wdg=1 bus=node_1233846580.1.2.3 conn=delta Kv=13.8 Kva=150.0 %R=0.565
~ wdg=2 bus=node_1233846566.1.2.3.4 conn=wye Kv=0.2200 Kva=150.0 %R=0.565
New Transformer.507900345_507900346 phases=3 windings=2 Xhl=3.840
~ wdg=1 bus=node_779774529.1.2.3 conn=delta Kv=13.8 Kva=150.0 %R=0.565
~ wdg=2 bus=node_779774564.1.2.3.4 conn=wye Kv=0.2200 Kva=150.0 %R=0.565
New Transformer.507900818_507900819 phases=3 windings=2 Xhl=3.840
~ wdg=1 bus=node_779775124.1.2.3 conn=delta Kv=13.8 Kva=150.0 %R=0.565
~ wdg=2 bus=node_779775159.1.2.3.4 conn=wye Kv=0.2200 Kva=150.0 %R=0.565
New Transformer.507901283_507901284 phases=3 windings=2 Xhl=3.840
~ wdg=1 bus=node_779775732.1.2.3 conn=delta Kv=13.8 Kva=150.0 %R=0.565
~ wdg=2 bus=node_779775767.1.2.3.4 conn=wye Kv=0.2200 Kva=150.0 %R=0.565
New Transformer.507901717_507901718 phases=3 windings=2 Xhl=3.840
~ wdg=1 bus=node_779776269.1.2.3 conn=delta Kv=13.8 Kva=150.0 %R=0.565
~ wdg=2 bus=node_779776304.1.2.3.4 conn=wye Kv=0.2200 Kva=150.0 %R=0.565
New Transformer.507902166_507902167 phases=3 windings=2 Xhl=3.840
~ wdg=1 bus=node_779776819.1.2.3 conn=delta Kv=13.8 Kva=150.0 %R=0.565
~ wdg=2 bus=node_779776854.1.2.3.4 conn=wye Kv=0.2200 Kva=150.0 %R=0.565
New Transformer.507898941_507898942 phases=3 windings=2 Xhl=3.840
~ wdg=1 bus=node_758362773.1.2.3 conn=delta Kv=13.8 Kva=150.0 %R=0.565
~ wdg=2 bus=node_758362808.1.2.3.4 conn=wye Kv=0.2200 Kva=150.0 %R=0.565
New Transformer.507899453_507899454 phases=3 windings=2 Xhl=3.840
~ wdg=1 bus=node_779773351.1.2.3 conn=delta Kv=13.8 Kva=150.0 %R=0.565
~ wdg=2 bus=node_779773386.1.2.3.4 conn=wye Kv=0.2200 Kva=150.0 %R=0.565
New Transformer.507899900_507899901 phases=3 windings=2 Xhl=3.840
~ wdg=1 bus=node_779773939.1.2.3 conn=delta Kv=13.8 Kva=150.0 %R=0.565
~ wdg=2 bus=node_779773974.1.2.3.4 conn=wye Kv=0.2200 Kva=150.0 %R=0.565
New Transformer.1438516276_1438516275 phases=3 windings=2 Xhl=3.840
~ wdg=1 bus=node_1751485113.1.2.3 conn=delta Kv=13.8 Kva=150.0 %R=0.565
~ wdg=2 bus=node_419119873.1.2.3.4 conn=wye Kv=0.2200 Kva=150.0 %R=0.565
New Transformer.331363686_2067123096 phases=3 windings=2 Xhl=3.840
~ wdg=1 bus=node_437189601.1.2.3 conn=delta Kv=13.8 Kva=150.0 %R=0.565
~ wdg=2 bus=node_413790134.1.2.3.4 conn=wye Kv=0.2200 Kva=150.0 %R=0.565
New Transformer.1678465039_1678465038 phases=3 windings=2 Xhl=3.840
~ wdg=1 bus=node_2002318458.1.2.3 conn=delta Kv=13.8 Kva=150.0 %R=0.565
~ wdg=2 bus=node_2002319179.1.2.3.4 conn=wye Kv=0.2200 Kva=150.0 %R=0.565
New Transformer.483323424_483323425 phases=3 windings=2 Xhl=3.840
~ wdg=1 bus=node_758361388.1.2.3 conn=delta Kv=13.8 Kva=150.0 %R=0.565
~ wdg=2 bus=node_758361423.1.2.3.4 conn=wye Kv=0.2200 Kva=150.0 %R=0.565
New Transformer.483321359_483321360 phases=3 windings=2 Xhl=3.840
~ wdg=1 bus=node_752853854.1.2.3 conn=delta Kv=13.8 Kva=150.0 %R=0.565
~ wdg=2 bus=node_752853889.1.2.3.4 conn=wye Kv=0.2200 Kva=150.0 %R=0.565
New Transformer.483322154_483322155 phases=3 windings=2 Xhl=3.840
~ wdg=1 bus=node_758359733.1.2.3 conn=delta Kv=13.8 Kva=150.0 %R=0.565
~ wdg=2 bus=node_758359768.1.2.3.4 conn=wye Kv=0.2200 Kva=150.0 %R=0.565
New Transformer.483322994_483322995 phases=3 windings=2 Xhl=3.840
~ wdg=1 bus=node_758360828.1.2.3 conn=delta Kv=13.8 Kva=150.0 %R=0.565
~ wdg=2 bus=node_758360863.1.2.3.4 conn=wye Kv=0.2200 Kva=150.0 %R=0.565
New Transformer.1324063769_1324063768 phases=3 windings=2 Xhl=3.840
~ wdg=1 bus=node_1620830727.1.2.3 conn=delta Kv=13.8 Kva=150.0 %R=0.565
~ wdg=2 bus=node_1620830751.1.2.3.4 conn=wye Kv=0.2200 Kva=150.0 %R=0.565
New Transformer.1324063809_1324063808 phases=3 windings=2 Xhl=3.840
~ wdg=1 bus=node_1620830894.1.2.3 conn=delta Kv=13.8 Kva=150.0 %R=0.565
~ wdg=2 bus=node_1620830765.1.2.3.4 conn=wye Kv=0.2200 Kva=150.0 %R=0.565
New Transformer.475841595_475841596 phases=3 windings=2 Xhl=3.840
~ wdg=1 bus=node_745685866.1.2.3 conn=delta Kv=13.8 Kva=150.0 %R=0.565
~ wdg=2 bus=node_745685901.1.2.3.4 conn=wye Kv=0.2200 Kva=150.0 %R=0.565
New Transformer.1629053506_1629053505 phases=3 windings=2 Xhl=3.840
~ wdg=1 bus=node_1949222773.1.2.3 conn=delta Kv=13.8 Kva=150.0 %R=0.565
~ wdg=2 bus=node_1949222784.1.2.3.4 conn=wye Kv=0.2200 Kva=150.0 %R=0.565
New Transformer.1279006566_1399642402 phases=3 windings=2 Xhl=3.840
~ wdg=1 bus=node_427667865.1.2.3 conn=delta Kv=13.8 Kva=150.0 %R=0.565
~ wdg=2 bus=node_1578079410.1.2.3.4 conn=wye Kv=0.2200 Kva=150.0 %R=0.565
New Transformer.331242520_331731656 phases=3 windings=2 Xhl=3.840
~ wdg=1 bus=node_434919792.1.2.3 conn=delta Kv=13.8 Kva=150.0 %R=0.565
~ wdg=2 bus=node_413828709.1.2.3.4 conn=wye Kv=0.2200 Kva=150.0 %R=0.565
New Transformer.331242766_331729059 phases=3 windings=2 Xhl=3.840
~ wdg=1 bus=node_428148600.1.2.3 conn=delta Kv=13.8 Kva=150.0 %R=0.565
~ wdg=2 bus=node_527496341.1.2.3.4 conn=wye Kv=0.2200 Kva=150.0 %R=0.565
New Transformer.331242370_2596508970 phases=3 windings=2 Xhl=3.840
~ wdg=1 bus=node_427668156.1.2.3 conn=delta Kv=13.8 Kva=150.0 %R=0.565
~ wdg=2 bus=node_413850799.1.2.3.4 conn=wye Kv=0.2200 Kva=150.0 %R=0.565
New Transformer.331241240_331764529 phases=3 windings=2 Xhl=3.840
~ wdg=1 bus=node_428149015.1.2.3 conn=delta Kv=13.8 Kva=150.0 %R=0.565
~ wdg=2 bus=node_413828322.1.2.3.4 conn=wye Kv=0.2200 Kva=150.0 %R=0.565
New Transformer.331240626_331728910 phases=3 windings=2 Xhl=3.840
~ wdg=1 bus=node_425077418.1.2.3 conn=delta Kv=13.8 Kva=150.0 %R=0.565
~ wdg=2 bus=node_413810199.1.2.3.4 conn=wye Kv=0.2200 Kva=150.0 %R=0.565
New Transformer.330775392_331573454 phases=3 windings=2 Xhl=3.840
~ wdg=1 bus=node_444789502.1.2.3 conn=delta Kv=13.8 Kva=150.0 %R=0.565
~ wdg=2 bus=node_413873253.1.2.3.4 conn=wye Kv=0.2200 Kva=150.0 %R=0.565
New Transformer.835857170_835857169 phases=3 windings=2 Xhl=3.840
~ wdg=1 bus=node_111733495.1.2.3 conn=delta Kv=13.8 Kva=150.0 %R=0.565
~ wdg=2 bus=node_414634346.1.2.3.4 conn=wye Kv=0.2200 Kva=150.0 %R=0.565
New Transformer.330775278_331763489 phases=3 windings=2 Xhl=3.840
~ wdg=1 bus=node_424948047.1.2.3 conn=delta Kv=13.8 Kva=150.0 %R=0.565
~ wdg=2 bus=node_523500499.1.2.3.4 conn=wye Kv=0.2200 Kva=150.0 %R=0.565
New Transformer.331239624_2252658189 phases=3 windings=2 Xhl=3.840
~ wdg=1 bus=node_428148955.1.2.3 conn=delta Kv=13.8 Kva=150.0 %R=0.565
~ wdg=2 bus=node_413789636.1.2.3.4 conn=wye Kv=0.2200 Kva=150.0 %R=0.565
New Transformer.841452272_841452271 phases=3 windings=2 Xhl=3.840
~ wdg=1 bus=node_1110724726.1.2.3 conn=delta Kv=13.8 Kva=150.0 %R=0.565
~ wdg=2 bus=node_1110724716.1.2.3.4 conn=wye Kv=0.2200 Kva=150.0 %R=0.565
New Transformer.331239554_1010854864 phases=3 windings=2 Xhl=3.840
~ wdg=1 bus=node_428150150.1.2.3 conn=delta Kv=13.8 Kva=150.0 %R=0.565
~ wdg=2 bus=node_417230183.1.2.3.4 conn=wye Kv=0.2200 Kva=150.0 %R=0.565
New Transformer.331239965_331573723 phases=3 windings=2 Xhl=3.840
~ wdg=1 bus=node_424949902.1.2.3 conn=delta Kv=13.8 Kva=150.0 %R=0.565
~ wdg=2 bus=node_482292908.1.2.3.4 conn=wye Kv=0.2200 Kva=150.0 %R=0.565
New Transformer.330774130_331777790 phases=3 windings=2 Xhl=3.840
~ wdg=1 bus=node_428148640.1.2.3 conn=delta Kv=13.8 Kva=150.0 %R=0.565
~ wdg=2 bus=node_527076873.1.2.3.4 conn=wye Kv=0.2200 Kva=150.0 %R=0.565
New Transformer.330774567_955771403 phases=3 windings=2 Xhl=3.840
~ wdg=1 bus=node_425076202.1.2.3 conn=delta Kv=13.8 Kva=150.0 %R=0.565
~ wdg=2 bus=node_413873265.1.2.3.4 conn=wye Kv=0.2200 Kva=150.0 %R=0.565
New Transformer.1084801913_1084801914 phases=3 windings=2 Xhl=3.840
~ wdg=1 bus=node_429435476.1.2.3 conn=delta Kv=13.8 Kva=150.0 %R=0.565
~ wdg=2 bus=node_418085890.1.2.3.4 conn=wye Kv=0.2200 Kva=150.0 %R=0.565
New Transformer.330773283_2166421763 phases=3 windings=2 Xhl=3.840
~ wdg=1 bus=node_429850198.1.2.3 conn=delta Kv=13.8 Kva=150.0 %R=0.565
~ wdg=2 bus=node_413848657.1.2.3.4 conn=wye Kv=0.2200 Kva=150.0 %R=0.565
New Transformer.2336253808_2657707072 phases=3 windings=2 Xhl=3.840
~ wdg=1 bus=node_2528762520.1.2.3 conn=delta Kv=13.8 Kva=150.0 %R=0.565
~ wdg=2 bus=node_2528762508.1.2.3.4 conn=wye Kv=0.2200 Kva=150.0 %R=0.565
New Transformer.2344864102_2344864101 phases=3 windings=2 Xhl=3.840
~ wdg=1 bus=node_2525213639.1.2.3 conn=delta Kv=13.8 Kva=150.0 %R=0.565
~ wdg=2 bus=node_2525213623.1.2.3.4 conn=wye Kv=0.2200 Kva=150.0 %R=0.565
New Transformer.1055014570_1055014569 phases=3 windings=2 Xhl=3.840
~ wdg=1 bus=node_1321727830.1.2.3 conn=delta Kv=13.8 Kva=150.0 %R=0.565
~ wdg=2 bus=node_1321727717.1.2.3.4 conn=wye Kv=0.2200 Kva=150.0 %R=0.565
New Transformer.2267786746_2656620508 phases=3 windings=2 Xhl=3.840
~ wdg=1 bus=node_2487090563.1.2.3 conn=delta Kv=13.8 Kva=150.0 %R=0.565
~ wdg=2 bus=node_2487090465.1.2.3.4 conn=wye Kv=0.2200 Kva=150.0 %R=0.565
New Transformer.1075870314_1075870315 phases=3 windings=2 Xhl=3.840
~ wdg=1 bus=node_1357505174.1.2.3 conn=delta Kv=13.8 Kva=150.0 %R=0.565
~ wdg=2 bus=node_1357505185.1.2.3.4 conn=wye Kv=0.2200 Kva=150.0 %R=0.565
New Transformer.2234554809_2234554808 phases=3 windings=2 Xhl=3.840
~ wdg=1 bus=node_2540347775.1.2.3 conn=delta Kv=13.8 Kva=150.0 %R=0.565
~ wdg=2 bus=node_2540347749.1.2.3.4 conn=wye Kv=0.2200 Kva=150.0 %R=0.565
New Transformer.1003418112_1003418113 phases=3 windings=2 Xhl=3.840
~ wdg=1 bus=node_1265948814.1.2.3 conn=delta Kv=13.8 Kva=150.0 %R=0.565
~ wdg=2 bus=node_1265949004.1.2.3.4 conn=wye Kv=0.2200 Kva=150.0 %R=0.565
New Transformer.1003418078_1003418079 phases=3 windings=2 Xhl=3.840
~ wdg=1 bus=node_1265948983.1.2.3 conn=delta Kv=13.8 Kva=150.0 %R=0.565
~ wdg=2 bus=node_1265949280.1.2.3.4 conn=wye Kv=0.2200 Kva=150.0 %R=0.565
New Transformer.2167418011_2167418010 phases=3 windings=2 Xhl=3.840
~ wdg=1 bus=node_434920276.1.2.3 conn=delta Kv=13.8 Kva=150.0 %R=0.565
~ wdg=2 bus=node_2475426759.1.2.3.4 conn=wye Kv=0.2200 Kva=150.0 %R=0.565
New Transformer.331239176_331573464 phases=3 windings=2 Xhl=3.840
~ wdg=1 bus=node_444951598.1.2.3 conn=delta Kv=13.8 Kva=112.5 %R=0.565
~ wdg=2 bus=node_413811546.1.2.3.4 conn=wye Kv=0.2200 Kva=112.5 %R=0.565
New Transformer.331240461_331724223 phases=3 windings=2 Xhl=3.840
~ wdg=1 bus=node_444950683.1.2.3 conn=delta Kv=13.8 Kva=112.5 %R=0.565
~ wdg=2 bus=node_523721564.1.2.3.4 conn=wye Kv=0.2200 Kva=112.5 %R=0.565
New Transformer.331240566_331766725 phases=3 windings=2 Xhl=3.840
~ wdg=1 bus=node_444880598.1.2.3 conn=delta Kv=13.8 Kva=112.5 %R=0.565
~ wdg=2 bus=node_413810520.1.2.3.4 conn=wye Kv=0.2200 Kva=112.5 %R=0.565
New Transformer.331242185_331779914 phases=3 windings=2 Xhl=3.840
~ wdg=1 bus=node_427668131.1.2.3 conn=delta Kv=13.8 Kva=112.5 %R=0.565
~ wdg=2 bus=node_413849023.1.2.3.4 conn=wye Kv=0.2200 Kva=112.5 %R=0.565
New Transformer.331365621_331766646 phases=3 windings=2 Xhl=3.840
~ wdg=1 bus=node_424847477.1.2.3 conn=delta Kv=13.8 Kva=112.5 %R=0.565
~ wdg=2 bus=node_423629675.1.2.3.4 conn=wye Kv=0.2200 Kva=112.5 %R=0.565
New Transformer.331366331_331573442 phases=3 windings=2 Xhl=3.840
~ wdg=1 bus=node_424947977.1.2.3 conn=delta Kv=13.8 Kva=112.5 %R=0.565
~ wdg=2 bus=node_482881791.1.2.3.4 conn=wye Kv=0.2200 Kva=112.5 %R=0.565
New Transformer.331367613_331763161 phases=3 windings=2 Xhl=3.840
~ wdg=1 bus=node_438784029.1.2.3 conn=delta Kv=13.8 Kva=112.5 %R=0.565
~ wdg=2 bus=node_423629558.1.2.3.4 conn=wye Kv=0.2200 Kva=112.5 %R=0.565
New Transformer.331471066_331720225 phases=3 windings=2 Xhl=3.840
~ wdg=1 bus=node_444951232.1.2.3 conn=delta Kv=13.8 Kva=112.5 %R=0.565
~ wdg=2 bus=node_482333329.1.2.3.4 conn=wye Kv=0.2200 Kva=112.5 %R=0.565
New Transformer.331572393_331722578 phases=3 windings=2 Xhl=3.840
~ wdg=1 bus=node_427668020.1.2.3 conn=delta Kv=13.8 Kva=112.5 %R=0.565
~ wdg=2 bus=node_413812746.1.2.3.4 conn=wye Kv=0.2200 Kva=112.5 %R=0.565
New Transformer.331472794_331731726 phases=3 windings=2 Xhl=3.840
~ wdg=1 bus=node_444949889.1.2.3 conn=delta Kv=13.8 Kva=112.5 %R=0.565
~ wdg=2 bus=node_528028145.1.2.3.4 conn=wye Kv=0.2200 Kva=112.5 %R=0.565
New Transformer.331473883_331731585 phases=3 windings=2 Xhl=3.840
~ wdg=1 bus=node_424950397.1.2.3 conn=delta Kv=13.8 Kva=112.5 %R=0.565
~ wdg=2 bus=node_413849923.1.2.3.4 conn=wye Kv=0.2200 Kva=112.5 %R=0.565
New Transformer.331473213_331724146 phases=3 windings=2 Xhl=3.840
~ wdg=1 bus=node_428146421.1.2.3 conn=delta Kv=13.8 Kva=112.5 %R=0.565
~ wdg=2 bus=node_413768902.1.2.3.4 conn=wye Kv=0.2200 Kva=112.5 %R=0.565
New Transformer.331474096_331573482 phases=3 windings=2 Xhl=3.840
~ wdg=1 bus=node_428146946.1.2.3 conn=delta Kv=13.8 Kva=112.5 %R=0.565
~ wdg=2 bus=node_413769196.1.2.3.4 conn=wye Kv=0.2200 Kva=112.5 %R=0.565
New Transformer.331471641_331766901 phases=3 windings=2 Xhl=3.810
~ wdg=1 bus=node_429650519.1.2.3 conn=delta Kv=13.8 Kva=100.0 %R=0.610
~ wdg=2 bus=node_416056186.1.2.3.4 conn=wye Kv=0.2200 Kva=100.0 %R=0.610
New Transformer.2167791757_2167791759 phases=3 windings=2 Xhl=3.770
~ wdg=1 bus=node_2529084818.1.2.3 conn=delta Kv=13.8 Kva=75.0 %R=0.670
~ wdg=2 bus=node_2529084805.1.2.3.4 conn=wye Kv=0.2200 Kva=75.0 %R=0.670
New Transformer.2177046229_2177046228 phases=3 windings=2 Xhl=3.770
~ wdg=1 bus=node_2483874140.1.2.3 conn=delta Kv=13.8 Kva=75.0 %R=0.670
~ wdg=2 bus=node_2483874114.1.2.3.4 conn=wye Kv=0.2200 Kva=75.0 %R=0.670
New Transformer.2180463642_2180463641 phases=3 windings=2 Xhl=3.770
~ wdg=1 bus=node_2487201664.1.2.3 conn=delta Kv=13.8 Kva=75.0 %R=0.670
~ wdg=2 bus=node_2487201606.1.2.3.4 conn=wye Kv=0.2200 Kva=75.0 %R=0.670
New Transformer.622402597_2195848756 phases=3 windings=2 Xhl=3.770
~ wdg=1 bus=node_890653397.1.2.3 conn=delta Kv=13.8 Kva=75.0 %R=0.670
~ wdg=2 bus=node_890653284.1.2.3.4 conn=wye Kv=0.2200 Kva=75.0 %R=0.670
New Transformer.622402876_1457862917 phases=3 windings=2 Xhl=3.770
~ wdg=1 bus=node_890653892.1.2.3 conn=delta Kv=13.8 Kva=75.0 %R=0.670
~ wdg=2 bus=node_890653532.1.2.3.4 conn=wye Kv=0.2200 Kva=75.0 %R=0.670
New Transformer.622403896_1457862911 phases=3 windings=2 Xhl=3.770
~ wdg=1 bus=node_890655620.1.2.3 conn=delta Kv=13.8 Kva=75.0 %R=0.670
~ wdg=2 bus=node_890655618.1.2.3.4 conn=wye Kv=0.2200 Kva=75.0 %R=0.670
New Transformer.622404508_1457862921 phases=3 windings=2 Xhl=3.770
~ wdg=1 bus=node_893402003.1.2.3 conn=delta Kv=13.8 Kva=75.0 %R=0.670
~ wdg=2 bus=node_890656722.1.2.3.4 conn=wye Kv=0.2200 Kva=75.0 %R=0.670
New Transformer.622404669_1457861785 phases=3 windings=2 Xhl=3.770
~ wdg=1 bus=node_893402548.1.2.3 conn=delta Kv=13.8 Kva=75.0 %R=0.670
~ wdg=2 bus=node_890657076.1.2.3.4 conn=wye Kv=0.2200 Kva=75.0 %R=0.670
New Transformer.622404776_1457861787 phases=3 windings=2 Xhl=3.770
~ wdg=1 bus=node_893403096.1.2.3 conn=delta Kv=13.8 Kva=75.0 %R=0.670
~ wdg=2 bus=node_893401209.1.2.3.4 conn=wye Kv=0.2200 Kva=75.0 %R=0.670
New Transformer.622405894_1457861791 phases=3 windings=2 Xhl=3.770
~ wdg=1 bus=node_893403452.1.2.3 conn=delta Kv=13.8 Kva=75.0 %R=0.670
~ wdg=2 bus=node_893403275.1.2.3.4 conn=wye Kv=0.2200 Kva=75.0 %R=0.670
New Transformer.330772985_331732832 phases=3 windings=2 Xhl=3.770
~ wdg=1 bus=node_425076898.1.2.3 conn=delta Kv=13.8 Kva=75.0 %R=0.670
~ wdg=2 bus=node_413874036.1.2.3.4 conn=wye Kv=0.2200 Kva=75.0 %R=0.670
New Transformer.1085188621_1085188623 phases=3 windings=2 Xhl=3.770
~ wdg=1 bus=node_1318537777.1.2.3 conn=delta Kv=13.8 Kva=75.0 %R=0.670
~ wdg=2 bus=node_1318537789.1.2.3.4 conn=wye Kv=0.2200 Kva=75.0 %R=0.670
New Transformer.628772250_628772249 phases=3 windings=2 Xhl=3.770
~ wdg=1 bus=node_896635637.1.2.3 conn=delta Kv=13.8 Kva=75.0 %R=0.670
~ wdg=2 bus=node_896636297.1.2.3.4 conn=wye Kv=0.2200 Kva=75.0 %R=0.670
New Transformer.628772331_628772330 phases=3 windings=2 Xhl=3.770
~ wdg=1 bus=node_896635869.1.2.3 conn=delta Kv=13.8 Kva=75.0 %R=0.670
~ wdg=2 bus=node_896637297.1.2.3.4 conn=wye Kv=0.2200 Kva=75.0 %R=0.670
New Transformer.330773312_331573255 phases=3 windings=2 Xhl=3.770
~ wdg=1 bus=node_429651867.1.2.3 conn=delta Kv=13.8 Kva=75.0 %R=0.670
~ wdg=2 bus=node_413874939.1.2.3.4 conn=wye Kv=0.2200 Kva=75.0 %R=0.670
New Transformer.330773929_331779901 phases=3 windings=2 Xhl=3.770
~ wdg=1 bus=node_425077383.1.2.3 conn=delta Kv=13.8 Kva=75.0 %R=0.670
~ wdg=2 bus=node_413810181.1.2.3.4 conn=wye Kv=0.2200 Kva=75.0 %R=0.670
New Transformer.330773971_331724079 phases=3 windings=2 Xhl=3.770
~ wdg=1 bus=node_424747155.1.2.3 conn=delta Kv=13.8 Kva=75.0 %R=0.670
~ wdg=2 bus=node_413850832.1.2.3.4 conn=wye Kv=0.2200 Kva=75.0 %R=0.670
New Transformer.330772300_331573476 phases=3 windings=2 Xhl=3.770
~ wdg=1 bus=node_434919102.1.2.3 conn=delta Kv=13.8 Kva=75.0 %R=0.670
~ wdg=2 bus=node_413811534.1.2.3.4 conn=wye Kv=0.2200 Kva=75.0 %R=0.670
New Transformer.330773468_331779906 phases=3 windings=2 Xhl=3.770
~ wdg=1 bus=node_427668366.1.2.3 conn=delta Kv=13.8 Kva=75.0 %R=0.670
~ wdg=2 bus=node_413873256.1.2.3.4 conn=wye Kv=0.2200 Kva=75.0 %R=0.670
New Transformer.330772420_331763140 phases=3 windings=2 Xhl=3.770
~ wdg=1 bus=node_428148484.1.2.3 conn=delta Kv=13.8 Kva=75.0 %R=0.670
~ wdg=2 bus=node_413875563.1.2.3.4 conn=wye Kv=0.2200 Kva=75.0 %R=0.670
New Transformer.330772535_331723986 phases=3 windings=2 Xhl=3.770
~ wdg=1 bus=node_437549689.1.2.3 conn=delta Kv=13.8 Kva=75.0 %R=0.670
~ wdg=2 bus=node_417229514.1.2.3.4 conn=wye Kv=0.2200 Kva=75.0 %R=0.670
New Transformer.2473713363_2473713362 phases=3 windings=2 Xhl=3.770
~ wdg=1 bus=node_2634643855.1.2.3 conn=delta Kv=13.8 Kva=75.0 %R=0.670
~ wdg=2 bus=node_2634643879.1.2.3.4 conn=wye Kv=0.2200 Kva=75.0 %R=0.670
New Transformer.330773299_331720931 phases=3 windings=2 Xhl=3.770
~ wdg=1 bus=node_429653286.1.2.3 conn=delta Kv=13.8 Kva=75.0 %R=0.670
~ wdg=2 bus=node_423577601.1.2.3.4 conn=wye Kv=0.2200 Kva=75.0 %R=0.670
New Transformer.330773183_331766676 phases=3 windings=2 Xhl=3.770
~ wdg=1 bus=node_424847137.1.2.3 conn=delta Kv=13.8 Kva=75.0 %R=0.670
~ wdg=2 bus=node_413876913.1.2.3.4 conn=wye Kv=0.2200 Kva=75.0 %R=0.670
New Transformer.330773232_331777988 phases=3 windings=2 Xhl=3.770
~ wdg=1 bus=node_429436271.1.2.3 conn=delta Kv=13.8 Kva=75.0 %R=0.670
~ wdg=2 bus=node_415332784.1.2.3.4 conn=wye Kv=0.2200 Kva=75.0 %R=0.670
New Transformer.330773370_2635502647 phases=3 windings=2 Xhl=3.770
~ wdg=1 bus=node_436827954.1.2.3 conn=delta Kv=13.8 Kva=75.0 %R=0.670
~ wdg=2 bus=node_412072992.1.2.3.4 conn=wye Kv=0.2200 Kva=75.0 %R=0.670
New Transformer.330772567_541353168 phases=3 windings=2 Xhl=3.770
~ wdg=1 bus=node_438566619.1.2.3 conn=delta Kv=13.8 Kva=75.0 %R=0.670
~ wdg=2 bus=node_418739966.1.2.3.4 conn=wye Kv=0.2200 Kva=75.0 %R=0.670
New Transformer.330772455_331766687 phases=3 windings=2 Xhl=3.770
~ wdg=1 bus=node_444949914.1.2.3 conn=delta Kv=13.8 Kva=75.0 %R=0.670
~ wdg=2 bus=node_482333129.1.2.3.4 conn=wye Kv=0.2200 Kva=75.0 %R=0.670
New Transformer.330772467_331731571 phases=3 windings=2 Xhl=3.770
~ wdg=1 bus=node_428148905.1.2.3 conn=delta Kv=13.8 Kva=75.0 %R=0.670
~ wdg=2 bus=node_413876412.1.2.3.4 conn=wye Kv=0.2200 Kva=75.0 %R=0.670
New Transformer.330772704_331763838 phases=3 windings=2 Xhl=3.770
~ wdg=1 bus=node_428149180.1.2.3 conn=delta Kv=13.8 Kva=75.0 %R=0.670
~ wdg=2 bus=node_416055016.1.2.3.4 conn=wye Kv=0.2200 Kva=75.0 %R=0.670
New Transformer.330772634_331573448 phases=3 windings=2 Xhl=3.770
~ wdg=1 bus=node_444789552.1.2.3 conn=delta Kv=13.8 Kva=75.0 %R=0.670
~ wdg=2 bus=node_413873295.1.2.3.4 conn=wye Kv=0.2200 Kva=75.0 %R=0.670
New Transformer.330772404_331722622 phases=3 windings=2 Xhl=3.770
~ wdg=1 bus=node_424844546.1.2.3 conn=delta Kv=13.8 Kva=75.0 %R=0.670
~ wdg=2 bus=node_417229862.1.2.3.4 conn=wye Kv=0.2200 Kva=75.0 %R=0.670
New Transformer.330774142_331779889 phases=3 windings=2 Xhl=3.770
~ wdg=1 bus=node_444951717.1.2.3 conn=delta Kv=13.8 Kva=75.0 %R=0.670
~ wdg=2 bus=node_413876922.1.2.3.4 conn=wye Kv=0.2200 Kva=75.0 %R=0.670
New Transformer.330774309_331763149 phases=3 windings=2 Xhl=3.770
~ wdg=1 bus=node_424746479.1.2.3 conn=delta Kv=13.8 Kva=75.0 %R=0.670
~ wdg=2 bus=node_413768449.1.2.3.4 conn=wye Kv=0.2200 Kva=75.0 %R=0.670
New Transformer.330774318_331777193 phases=3 windings=2 Xhl=3.770
~ wdg=1 bus=node_425348674.1.2.3 conn=delta Kv=13.8 Kva=75.0 %R=0.670
~ wdg=2 bus=node_418068410.1.2.3.4 conn=wye Kv=0.2200 Kva=75.0 %R=0.670
New Transformer.330774442_331777222 phases=3 windings=2 Xhl=3.770
~ wdg=1 bus=node_424634499.1.2.3 conn=delta Kv=13.8 Kva=75.0 %R=0.670
~ wdg=2 bus=node_413790008.1.2.3.4 conn=wye Kv=0.2200 Kva=75.0 %R=0.670
New Transformer.330773908_331731713 phases=3 windings=2 Xhl=3.770
~ wdg=1 bus=node_436824404.1.2.3 conn=delta Kv=13.8 Kva=75.0 %R=0.670
~ wdg=2 bus=node_413921226.1.2.3.4 conn=wye Kv=0.2200 Kva=75.0 %R=0.670
New Transformer.330773802_331764924 phases=3 windings=2 Xhl=3.770
~ wdg=1 bus=node_436824514.1.2.3 conn=delta Kv=13.8 Kva=75.0 %R=0.670
~ wdg=2 bus=node_414923358.1.2.3.4 conn=wye Kv=0.2200 Kva=75.0 %R=0.670
New Transformer.330774392_331720195 phases=3 windings=2 Xhl=3.770
~ wdg=1 bus=node_434918584.1.2.3 conn=delta Kv=13.8 Kva=75.0 %R=0.670
~ wdg=2 bus=node_416009244.1.2.3.4 conn=wye Kv=0.2200 Kva=75.0 %R=0.670
New Transformer.330774524_331779929 phases=3 windings=2 Xhl=3.770
~ wdg=1 bus=node_424634514.1.2.3 conn=delta Kv=13.8 Kva=75.0 %R=0.670
~ wdg=2 bus=node_413790248.1.2.3.4 conn=wye Kv=0.2200 Kva=75.0 %R=0.670
New Transformer.330774199_1456305949 phases=3 windings=2 Xhl=3.770
~ wdg=1 bus=node_437884882.1.2.3 conn=delta Kv=13.8 Kva=75.0 %R=0.670
~ wdg=2 bus=node_413787542.1.2.3.4 conn=wye Kv=0.2200 Kva=75.0 %R=0.670
New Transformer.330774034_331779816 phases=3 windings=2 Xhl=3.770
~ wdg=1 bus=node_438393494.1.2.3 conn=delta Kv=13.8 Kva=75.0 %R=0.670
~ wdg=2 bus=node_418068176.1.2.3.4 conn=wye Kv=0.2200 Kva=75.0 %R=0.670
New Transformer.330774436_331777112 phases=3 windings=2 Xhl=3.770
~ wdg=1 bus=node_437366726.1.2.3 conn=delta Kv=13.8 Kva=75.0 %R=0.670
~ wdg=2 bus=node_413788067.1.2.3.4 conn=wye Kv=0.2200 Kva=75.0 %R=0.670
New Transformer.330774437_331724101 phases=3 windings=2 Xhl=3.770
~ wdg=1 bus=node_424844846.1.2.3 conn=delta Kv=13.8 Kva=75.0 %R=0.670
~ wdg=2 bus=node_418068332.1.2.3.4 conn=wye Kv=0.2200 Kva=75.0 %R=0.670
New Transformer.330774023_331766652 phases=3 windings=2 Xhl=3.770
~ wdg=1 bus=node_434919747.1.2.3 conn=delta Kv=13.8 Kva=75.0 %R=0.670
~ wdg=2 bus=node_413851051.1.2.3.4 conn=wye Kv=0.2200 Kva=75.0 %R=0.670
New Transformer.330774297_2609682808 phases=3 windings=2 Xhl=3.770
~ wdg=1 bus=node_444787610.1.2.3 conn=delta Kv=13.8 Kva=75.0 %R=0.670
~ wdg=2 bus=node_413768032.1.2.3.4 conn=wye Kv=0.2200 Kva=75.0 %R=0.670
New Transformer.330773714_331779933 phases=3 windings=2 Xhl=3.770
~ wdg=1 bus=node_428147440.1.2.3 conn=delta Kv=13.8 Kva=75.0 %R=0.670
~ wdg=2 bus=node_413790266.1.2.3.4 conn=wye Kv=0.2200 Kva=75.0 %R=0.670
New Transformer.330773739_331779459 phases=3 windings=2 Xhl=3.770
~ wdg=1 bus=node_438782959.1.2.3 conn=delta Kv=13.8 Kva=75.0 %R=0.670
~ wdg=2 bus=node_418766191.1.2.3.4 conn=wye Kv=0.2200 Kva=75.0 %R=0.670
New Transformer.331239385_2704302665 phases=3 windings=2 Xhl=4.960
~ wdg=1 bus=node_427669315.1.2.3 conn=delta Kv=13.8 Kva=75.0 %R=0.305
~ wdg=2 bus=node_414689233.1.2.3.4 conn=wye Kv=0.2200 Kva=75.0 %R=0.305
New Transformer.331239269_331722561 phases=3 windings=2 Xhl=3.770
~ wdg=1 bus=node_444789571.1.2.3 conn=delta Kv=13.8 Kva=75.0 %R=0.670
~ wdg=2 bus=node_413849863.1.2.3.4 conn=wye Kv=0.2200 Kva=75.0 %R=0.670
New Transformer.331239254_331728677 phases=3 windings=2 Xhl=3.770
~ wdg=1 bus=node_1265653568.1.2.3 conn=delta Kv=13.8 Kva=75.0 %R=0.670
~ wdg=2 bus=node_413829216.1.2.3.4 conn=wye Kv=0.2200 Kva=75.0 %R=0.670
New Transformer.331239343_1111815363 phases=3 windings=2 Xhl=3.770
~ wdg=1 bus=node_437189521.1.2.3 conn=delta Kv=13.8 Kva=75.0 %R=0.670
~ wdg=2 bus=node_413790155.1.2.3.4 conn=wye Kv=0.2200 Kva=75.0 %R=0.670
New Transformer.331239339_331724115 phases=3 windings=2 Xhl=3.770
~ wdg=1 bus=node_444787546.1.2.3 conn=delta Kv=13.8 Kva=75.0 %R=0.670
~ wdg=2 bus=node_412073310.1.2.3.4 conn=wye Kv=0.2200 Kva=75.0 %R=0.670
New Transformer.821107297_821107298 phases=3 windings=2 Xhl=3.770
~ wdg=1 bus=node_1091139822.1.2.3 conn=delta Kv=13.8 Kva=75.0 %R=0.670
~ wdg=2 bus=node_1091139864.1.2.3.4 conn=wye Kv=0.2200 Kva=75.0 %R=0.670
New Transformer.330774793_331777906 phases=3 windings=2 Xhl=3.770
~ wdg=1 bus=node_434662546.1.2.3 conn=delta Kv=13.8 Kva=75.0 %R=0.670
~ wdg=2 bus=node_415976597.1.2.3.4 conn=wye Kv=0.2200 Kva=75.0 %R=0.670
New Transformer.330774663_331722579 phases=3 windings=2 Xhl=3.770
~ wdg=1 bus=node_444880653.1.2.3 conn=delta Kv=13.8 Kva=75.0 %R=0.670
~ wdg=2 bus=node_413810538.1.2.3.4 conn=wye Kv=0.2200 Kva=75.0 %R=0.670
New Transformer.330774886_331722538 phases=3 windings=2 Xhl=3.770
~ wdg=1 bus=node_424950187.1.2.3 conn=delta Kv=13.8 Kva=75.0 %R=0.670
~ wdg=2 bus=node_413849947.1.2.3.4 conn=wye Kv=0.2200 Kva=75.0 %R=0.670
New Transformer.331239807_1226692745 phases=3 windings=2 Xhl=3.770
~ wdg=1 bus=node_429848175.1.2.3 conn=delta Kv=13.8 Kva=75.0 %R=0.670
~ wdg=2 bus=node_413809761.1.2.3.4 conn=wye Kv=0.2200 Kva=75.0 %R=0.670
New Transformer.331239548_331763145 phases=3 windings=2 Xhl=3.770
~ wdg=1 bus=node_424947123.1.2.3 conn=delta Kv=13.8 Kva=75.0 %R=0.670
~ wdg=2 bus=node_413875230.1.2.3.4 conn=wye Kv=0.2200 Kva=75.0 %R=0.670
New Transformer.331239687_2656143880 phases=3 windings=2 Xhl=3.770
~ wdg=1 bus=node_444950787.1.2.3 conn=delta Kv=13.8 Kva=75.0 %R=0.670
~ wdg=2 bus=node_413849926.1.2.3.4 conn=wye Kv=0.2200 Kva=75.0 %R=0.670
New Transformer.331239672_331723989 phases=3 windings=2 Xhl=3.770
~ wdg=1 bus=node_437547805.1.2.3 conn=delta Kv=13.8 Kva=75.0 %R=0.670
~ wdg=2 bus=node_417229964.1.2.3.4 conn=wye Kv=0.2200 Kva=75.0 %R=0.670
New Transformer.331239486_331763104 phases=3 windings=2 Xhl=3.770
~ wdg=1 bus=node_425077633.1.2.3 conn=delta Kv=13.8 Kva=75.0 %R=0.670
~ wdg=2 bus=node_413810757.1.2.3.4 conn=wye Kv=0.2200 Kva=75.0 %R=0.670
New Transformer.331239698_331779856 phases=3 windings=2 Xhl=3.770
~ wdg=1 bus=node_444880259.1.2.3 conn=delta Kv=13.8 Kva=75.0 %R=0.670
~ wdg=2 bus=node_413851093.1.2.3.4 conn=wye Kv=0.2200 Kva=75.0 %R=0.670
New Transformer.331239712_331766614 phases=3 windings=2 Xhl=3.770
~ wdg=1 bus=node_437547820.1.2.3 conn=delta Kv=13.8 Kva=75.0 %R=0.670
~ wdg=2 bus=node_417229928.1.2.3.4 conn=wye Kv=0.2200 Kva=75.0 %R=0.670
New Transformer.331240135_331723990 phases=3 windings=2 Xhl=3.770
~ wdg=1 bus=node_438394940.1.2.3 conn=delta Kv=13.8 Kva=75.0 %R=0.670
~ wdg=2 bus=node_417230015.1.2.3.4 conn=wye Kv=0.2200 Kva=75.0 %R=0.670
New Transformer.331239951_2676927541 phases=3 windings=2 Xhl=4.960
~ wdg=1 bus=node_427919168.1.2.3 conn=delta Kv=13.8 Kva=75.0 %R=0.305
~ wdg=2 bus=node_413873946.1.2.3.4 conn=wye Kv=0.2200 Kva=75.0 %R=0.305
New Transformer.331239949_331777202 phases=3 windings=2 Xhl=3.770
~ wdg=1 bus=node_424846689.1.2.3 conn=delta Kv=13.8 Kva=75.0 %R=0.670
~ wdg=2 bus=node_413828355.1.2.3.4 conn=wye Kv=0.2200 Kva=75.0 %R=0.670
New Transformer.331239931_331763136 phases=3 windings=2 Xhl=3.770
~ wdg=1 bus=node_434919702.1.2.3 conn=delta Kv=13.8 Kva=75.0 %R=0.670
~ wdg=2 bus=node_413850463.1.2.3.4 conn=wye Kv=0.2200 Kva=75.0 %R=0.670
New Transformer.331239976_331777015 phases=3 windings=2 Xhl=3.770
~ wdg=1 bus=node_438957175.1.2.3 conn=delta Kv=13.8 Kva=75.0 %R=0.670
~ wdg=2 bus=node_413849809.1.2.3.4 conn=wye Kv=0.2200 Kva=75.0 %R=0.670
New Transformer.330775150_331779298 phases=3 windings=2 Xhl=3.770
~ wdg=1 bus=node_438567499.1.2.3 conn=delta Kv=13.8 Kva=75.0 %R=0.670
~ wdg=2 bus=node_413850199.1.2.3.4 conn=wye Kv=0.2200 Kva=75.0 %R=0.670
New Transformer.330775243_331731743 phases=3 windings=2 Xhl=3.770
~ wdg=1 bus=node_438053418.1.2.3 conn=delta Kv=13.8 Kva=75.0 %R=0.670
~ wdg=2 bus=node_413810715.1.2.3.4 conn=wye Kv=0.2200 Kva=75.0 %R=0.670
New Transformer.330775255_331574018 phases=3 windings=2 Xhl=3.770
~ wdg=1 bus=node_424635629.1.2.3 conn=delta Kv=13.8 Kva=75.0 %R=0.670
~ wdg=2 bus=node_416131105.1.2.3.4 conn=wye Kv=0.2200 Kva=75.0 %R=0.670
New Transformer.330774951_1013658898 phases=3 windings=2 Xhl=3.770
~ wdg=1 bus=node_444880934.1.2.3 conn=delta Kv=13.8 Kva=75.0 %R=0.670
~ wdg=2 bus=node_413826522.1.2.3.4 conn=wye Kv=0.2200 Kva=75.0 %R=0.670
New Transformer.330774938_331779861 phases=3 windings=2 Xhl=3.770
~ wdg=1 bus=node_437191600.1.2.3 conn=delta Kv=13.8 Kva=75.0 %R=0.670
~ wdg=2 bus=node_413874321.1.2.3.4 conn=wye Kv=0.2200 Kva=75.0 %R=0.670
New Transformer.330775174_331731460 phases=3 windings=2 Xhl=3.770
~ wdg=1 bus=node_438393445.1.2.3 conn=delta Kv=13.8 Kva=75.0 %R=0.670
~ wdg=2 bus=node_417229706.1.2.3.4 conn=wye Kv=0.2200 Kva=75.0 %R=0.670
New Transformer.330775185_331766678 phases=3 windings=2 Xhl=3.770
~ wdg=1 bus=node_434920985.1.2.3 conn=delta Kv=13.8 Kva=75.0 %R=0.670
~ wdg=2 bus=node_418068341.1.2.3.4 conn=wye Kv=0.2200 Kva=75.0 %R=0.670
New Transformer.330775188_331720553 phases=3 windings=2 Xhl=3.770
~ wdg=1 bus=node_437009472.1.2.3 conn=delta Kv=13.8 Kva=75.0 %R=0.670
~ wdg=2 bus=node_414314781.1.2.3.4 conn=wye Kv=0.2200 Kva=75.0 %R=0.670
New Transformer.330775091_331731364 phases=3 windings=2 Xhl=3.770
~ wdg=1 bus=node_436824604.1.2.3 conn=delta Kv=13.8 Kva=75.0 %R=0.670
~ wdg=2 bus=node_413850961.1.2.3.4 conn=wye Kv=0.2200 Kva=75.0 %R=0.670
New Transformer.330775094_331766651 phases=3 windings=2 Xhl=3.770
~ wdg=1 bus=node_424947207.1.2.3 conn=delta Kv=13.8 Kva=75.0 %R=0.670
~ wdg=2 bus=node_413874078.1.2.3.4 conn=wye Kv=0.2200 Kva=75.0 %R=0.670
New Transformer.330775022_331731553 phases=3 windings=2 Xhl=3.770
~ wdg=1 bus=node_434919468.1.2.3 conn=delta Kv=13.8 Kva=75.0 %R=0.670
~ wdg=2 bus=node_493242859.1.2.3.4 conn=wye Kv=0.2200 Kva=75.0 %R=0.670
New Transformer.330775291_331731549 phases=3 windings=2 Xhl=3.770
~ wdg=1 bus=node_437883528.1.2.3 conn=delta Kv=13.8 Kva=75.0 %R=0.670
~ wdg=2 bus=node_423629690.1.2.3.4 conn=wye Kv=0.2200 Kva=75.0 %R=0.670
New Transformer.330775213_331724138 phases=3 windings=2 Xhl=3.770
~ wdg=1 bus=node_444949824.1.2.3 conn=delta Kv=13.8 Kva=75.0 %R=0.670
~ wdg=2 bus=node_413849941.1.2.3.4 conn=wye Kv=0.2200 Kva=75.0 %R=0.670
New Transformer.330775302_331729966 phases=3 windings=2 Xhl=3.770
~ wdg=1 bus=node_434918863.1.2.3 conn=delta Kv=13.8 Kva=75.0 %R=0.670
~ wdg=2 bus=node_416054809.1.2.3.4 conn=wye Kv=0.2200 Kva=75.0 %R=0.670
New Transformer.330775354_331728774 phases=3 windings=2 Xhl=3.770
~ wdg=1 bus=node_428148535.1.2.3 conn=delta Kv=13.8 Kva=75.0 %R=0.670
~ wdg=2 bus=node_413897311.1.2.3.4 conn=wye Kv=0.2200 Kva=75.0 %R=0.670
New Transformer.330774929_331724161 phases=3 windings=2 Xhl=3.770
~ wdg=1 bus=node_428147690.1.2.3 conn=delta Kv=13.8 Kva=75.0 %R=0.670
~ wdg=2 bus=node_413790263.1.2.3.4 conn=wye Kv=0.2200 Kva=75.0 %R=0.670
New Transformer.330774907_2064203097 phases=3 windings=2 Xhl=3.770
~ wdg=1 bus=node_434663889.1.2.3 conn=delta Kv=13.8 Kva=75.0 %R=0.670
~ wdg=2 bus=node_414689575.1.2.3.4 conn=wye Kv=0.2200 Kva=75.0 %R=0.670
New Transformer.330774910_331764023 phases=3 windings=2 Xhl=3.770
~ wdg=1 bus=node_428148895.1.2.3 conn=delta Kv=13.8 Kva=75.0 %R=0.670
~ wdg=2 bus=node_414987931.1.2.3.4 conn=wye Kv=0.2200 Kva=75.0 %R=0.670
New Transformer.331239395_331722585 phases=3 windings=2 Xhl=3.770
~ wdg=1 bus=node_427918913.1.2.3 conn=delta Kv=13.8 Kva=75.0 %R=0.670
~ wdg=2 bus=node_413826546.1.2.3.4 conn=wye Kv=0.2200 Kva=75.0 %R=0.670
New Transformer.331239396_794269770 phases=3 windings=2 Xhl=3.770
~ wdg=1 bus=node_425076132.1.2.3 conn=delta Kv=13.8 Kva=75.0 %R=0.670
~ wdg=2 bus=node_413812773.1.2.3.4 conn=wye Kv=0.2200 Kva=75.0 %R=0.670
New Transformer.330775193_331763120 phases=3 windings=2 Xhl=3.770
~ wdg=1 bus=node_424634523.1.2.3 conn=delta Kv=13.8 Kva=75.0 %R=0.670
~ wdg=2 bus=node_413790011.1.2.3.4 conn=wye Kv=0.2200 Kva=75.0 %R=0.670
New Transformer.1147700322_1147700321 phases=3 windings=2 Xhl=3.770
~ wdg=1 bus=node_430032859.1.2.3 conn=delta Kv=13.8 Kva=75.0 %R=0.670
~ wdg=2 bus=node_416089310.1.2.3.4 conn=wye Kv=0.2200 Kva=75.0 %R=0.670
New Transformer.331239282_977387422 phases=3 windings=2 Xhl=3.770
~ wdg=1 bus=node_436826819.1.2.3 conn=delta Kv=13.8 Kva=75.0 %R=0.670
~ wdg=2 bus=node_413789639.1.2.3.4 conn=wye Kv=0.2200 Kva=75.0 %R=0.670
New Transformer.331239182_331777894 phases=3 windings=2 Xhl=3.770
~ wdg=1 bus=node_434664398.1.2.3 conn=delta Kv=13.8 Kva=75.0 %R=0.670
~ wdg=2 bus=node_415976222.1.2.3.4 conn=wye Kv=0.2200 Kva=75.0 %R=0.670
New Transformer.331240405_331573421 phases=3 windings=2 Xhl=3.770
~ wdg=1 bus=node_434919467.1.2.3 conn=delta Kv=13.8 Kva=75.0 %R=0.670
~ wdg=2 bus=node_413847829.1.2.3.4 conn=wye Kv=0.2200 Kva=75.0 %R=0.670
New Transformer.331240361_331731407 phases=3 windings=2 Xhl=3.770
~ wdg=1 bus=node_444787936.1.2.3 conn=delta Kv=13.8 Kva=75.0 %R=0.670
~ wdg=2 bus=node_413874954.1.2.3.4 conn=wye Kv=0.2200 Kva=75.0 %R=0.670
New Transformer.331240679_331766136 phases=3 windings=2 Xhl=3.770
~ wdg=1 bus=node_437881498.1.2.3 conn=delta Kv=13.8 Kva=75.0 %R=0.670
~ wdg=2 bus=node_413850964.1.2.3.4 conn=wye Kv=0.2200 Kva=75.0 %R=0.670
New Transformer.331240605_331764184 phases=3 windings=2 Xhl=3.770
~ wdg=1 bus=node_428146932.1.2.3 conn=delta Kv=13.8 Kva=75.0 %R=0.670
~ wdg=2 bus=node_490645459.1.2.3.4 conn=wye Kv=0.2200 Kva=75.0 %R=0.670
New Transformer.331240411_331731555 phases=3 windings=2 Xhl=3.770
~ wdg=1 bus=node_424846623.1.2.3 conn=delta Kv=13.8 Kva=75.0 %R=0.670
~ wdg=2 bus=node_413848858.1.2.3.4 conn=wye Kv=0.2200 Kva=75.0 %R=0.670
New Transformer.331240685_331731325 phases=3 windings=2 Xhl=3.770
~ wdg=1 bus=node_424947617.1.2.3 conn=delta Kv=13.8 Kva=75.0 %R=0.670
~ wdg=2 bus=node_413829699.1.2.3.4 conn=wye Kv=0.2200 Kva=75.0 %R=0.670
New Transformer.331240633_331723016 phases=3 windings=2 Xhl=3.770
~ wdg=1 bus=node_427922509.1.2.3 conn=delta Kv=13.8 Kva=75.0 %R=0.670
~ wdg=2 bus=node_413921235.1.2.3.4 conn=wye Kv=0.2200 Kva=75.0 %R=0.670
New Transformer.331240242_999656086 phases=3 windings=2 Xhl=3.770
~ wdg=1 bus=node_429650261.1.2.3 conn=delta Kv=13.8 Kva=75.0 %R=0.670
~ wdg=2 bus=node_413788166.1.2.3.4 conn=wye Kv=0.2200 Kva=75.0 %R=0.670
New Transformer.331240253_497116380 phases=3 windings=2 Xhl=3.770
~ wdg=1 bus=node_427922659.1.2.3 conn=delta Kv=13.8 Kva=75.0 %R=0.670
~ wdg=2 bus=node_413768908.1.2.3.4 conn=wye Kv=0.2200 Kva=75.0 %R=0.670
New Transformer.331240254_331766174 phases=3 windings=2 Xhl=3.770
~ wdg=1 bus=node_437715121.1.2.3 conn=delta Kv=13.8 Kva=75.0 %R=0.670
~ wdg=2 bus=node_413848090.1.2.3.4 conn=wye Kv=0.2200 Kva=75.0 %R=0.670
New Transformer.331240324_1546432605 phases=3 windings=2 Xhl=3.770
~ wdg=1 bus=node_1865906227.1.2.3 conn=delta Kv=13.8 Kva=75.0 %R=0.670
~ wdg=2 bus=node_1865906216.1.2.3.4 conn=wye Kv=0.2200 Kva=75.0 %R=0.670
New Transformer.331240448_331731616 phases=3 windings=2 Xhl=3.770
~ wdg=1 bus=node_424633888.1.2.3 conn=delta Kv=13.8 Kva=75.0 %R=0.670
~ wdg=2 bus=node_413768950.1.2.3.4 conn=wye Kv=0.2200 Kva=75.0 %R=0.670
New Transformer.331240083_1509645948 phases=3 windings=2 Xhl=3.770
~ wdg=1 bus=node_1820098196.1.2.3 conn=delta Kv=13.8 Kva=75.0 %R=0.670
~ wdg=2 bus=node_413787578.1.2.3.4 conn=wye Kv=0.2200 Kva=75.0 %R=0.670
New Transformer.1164014388_1164014389 phases=3 windings=2 Xhl=3.770
~ wdg=1 bus=node_1435426381.1.2.3 conn=delta Kv=13.8 Kva=75.0 %R=0.670
~ wdg=2 bus=node_1435425381.1.2.3.4 conn=wye Kv=0.2200 Kva=75.0 %R=0.670
New Transformer.331240019_331766709 phases=3 windings=2 Xhl=3.770
~ wdg=1 bus=node_424747780.1.2.3 conn=delta Kv=13.8 Kva=75.0 %R=0.670
~ wdg=2 bus=node_412072779.1.2.3.4 conn=wye Kv=0.2200 Kva=75.0 %R=0.670
New Transformer.331240105_331766701 phases=3 windings=2 Xhl=3.770
~ wdg=1 bus=node_444880943.1.2.3 conn=delta Kv=13.8 Kva=75.0 %R=0.670
~ wdg=2 bus=node_413811174.1.2.3.4 conn=wye Kv=0.2200 Kva=75.0 %R=0.670
New Transformer.331241036_331721046 phases=3 windings=2 Xhl=3.770
~ wdg=1 bus=node_434662561.1.2.3 conn=delta Kv=13.8 Kva=75.0 %R=0.670
~ wdg=2 bus=node_415975748.1.2.3.4 conn=wye Kv=0.2200 Kva=75.0 %R=0.670
New Transformer.331241305_331763148 phases=3 windings=2 Xhl=3.770
~ wdg=1 bus=node_424846817.1.2.3 conn=delta Kv=13.8 Kva=75.0 %R=0.670
~ wdg=2 bus=node_413767408.1.2.3.4 conn=wye Kv=0.2200 Kva=75.0 %R=0.670
New Transformer.331241418_1379177854 phases=3 windings=2 Xhl=3.770
~ wdg=1 bus=node_424951072.1.2.3 conn=delta Kv=13.8 Kva=75.0 %R=0.670
~ wdg=2 bus=node_413769136.1.2.3.4 conn=wye Kv=0.2200 Kva=75.0 %R=0.670
New Transformer.331241389_331764685 phases=3 windings=2 Xhl=3.770
~ wdg=1 bus=node_434918948.1.2.3 conn=delta Kv=13.8 Kva=75.0 %R=0.670
~ wdg=2 bus=node_416054857.1.2.3.4 conn=wye Kv=0.2200 Kva=75.0 %R=0.670
New Transformer.331240888_331722567 phases=3 windings=2 Xhl=3.770
~ wdg=1 bus=node_428148329.1.2.3 conn=delta Kv=13.8 Kva=75.0 %R=0.670
~ wdg=2 bus=node_413848681.1.2.3.4 conn=wye Kv=0.2200 Kva=75.0 %R=0.670
New Transformer.331240891_331728927 phases=3 windings=2 Xhl=3.770
~ wdg=1 bus=node_424949673.1.2.3 conn=delta Kv=13.8 Kva=75.0 %R=0.670
~ wdg=2 bus=node_501476288.1.2.3.4 conn=wye Kv=0.2200 Kva=75.0 %R=0.670
New Transformer.331241385_331731372 phases=3 windings=2 Xhl=3.770
~ wdg=1 bus=node_428339436.1.2.3 conn=delta Kv=13.8 Kva=75.0 %R=0.670
~ wdg=2 bus=node_413873913.1.2.3.4 conn=wye Kv=0.2200 Kva=75.0 %R=0.670
New Transformer.331241005_331732835 phases=3 windings=2 Xhl=3.770
~ wdg=1 bus=node_438955750.1.2.3 conn=delta Kv=13.8 Kva=75.0 %R=0.670
~ wdg=2 bus=node_413874513.1.2.3.4 conn=wye Kv=0.2200 Kva=75.0 %R=0.670
New Transformer.331241013_331724129 phases=3 windings=2 Xhl=3.770
~ wdg=1 bus=node_428147670.1.2.3 conn=delta Kv=13.8 Kva=75.0 %R=0.670
~ wdg=2 bus=node_413826783.1.2.3.4 conn=wye Kv=0.2200 Kva=75.0 %R=0.670
New Transformer.331241015_331777121 phases=3 windings=2 Xhl=3.770
~ wdg=1 bus=node_437882973.1.2.3 conn=delta Kv=13.8 Kva=75.0 %R=0.670
~ wdg=2 bus=node_413791010.1.2.3.4 conn=wye Kv=0.2200 Kva=75.0 %R=0.670
New Transformer.331241248_331722438 phases=3 windings=2 Xhl=3.770
~ wdg=1 bus=node_428147776.1.2.3 conn=delta Kv=13.8 Kva=75.0 %R=0.670
~ wdg=2 bus=node_413850580.1.2.3.4 conn=wye Kv=0.2200 Kva=75.0 %R=0.670
New Transformer.331240964_331720090 phases=3 windings=2 Xhl=3.770
~ wdg=1 bus=node_434920118.1.2.3 conn=delta Kv=13.8 Kva=75.0 %R=0.670
~ wdg=2 bus=node_423577808.1.2.3.4 conn=wye Kv=0.2200 Kva=75.0 %R=0.670
New Transformer.331241022_331777195 phases=3 windings=2 Xhl=3.770
~ wdg=1 bus=node_424844850.1.2.3 conn=delta Kv=13.8 Kva=75.0 %R=0.670
~ wdg=2 bus=node_418068245.1.2.3.4 conn=wye Kv=0.2200 Kva=75.0 %R=0.670
New Transformer.331241398_331767048 phases=3 windings=2 Xhl=3.770
~ wdg=1 bus=node_428148520.1.2.3 conn=delta Kv=13.8 Kva=75.0 %R=0.670
~ wdg=2 bus=node_415905864.1.2.3.4 conn=wye Kv=0.2200 Kva=75.0 %R=0.670
New Transformer.331241169_331724120 phases=3 windings=2 Xhl=3.770
~ wdg=1 bus=node_434920008.1.2.3 conn=delta Kv=13.8 Kva=75.0 %R=0.670
~ wdg=2 bus=node_412072899.1.2.3.4 conn=wye Kv=0.2200 Kva=75.0 %R=0.670
New Transformer.331242000_331722600 phases=3 windings=2 Xhl=3.770
~ wdg=1 bus=node_425077868.1.2.3 conn=delta Kv=13.8 Kva=75.0 %R=0.670
~ wdg=2 bus=node_413790092.1.2.3.4 conn=wye Kv=0.2200 Kva=75.0 %R=0.670
New Transformer.331242138_1711695759 phases=3 windings=2 Xhl=3.770
~ wdg=1 bus=node_424747064.1.2.3 conn=delta Kv=13.8 Kva=75.0 %R=0.670
~ wdg=2 bus=node_412072854.1.2.3.4 conn=wye Kv=0.2200 Kva=75.0 %R=0.670
New Transformer.331241898_331779584 phases=3 windings=2 Xhl=3.770
~ wdg=1 bus=node_438227087.1.2.3 conn=delta Kv=13.8 Kva=75.0 %R=0.670
~ wdg=2 bus=node_413826753.1.2.3.4 conn=wye Kv=0.2200 Kva=75.0 %R=0.670
New Transformer.331242041_2165708987 phases=3 windings=2 Xhl=3.770
~ wdg=1 bus=node_434664433.1.2.3 conn=delta Kv=13.8 Kva=75.0 %R=0.670
~ wdg=2 bus=node_415976225.1.2.3.4 conn=wye Kv=0.2200 Kva=75.0 %R=0.670
New Transformer.331242045_2209563580 phases=3 windings=2 Xhl=3.770
~ wdg=1 bus=node_434663306.1.2.3 conn=delta Kv=13.8 Kva=75.0 %R=0.670
~ wdg=2 bus=node_415976768.1.2.3.4 conn=wye Kv=0.2200 Kva=75.0 %R=0.670
New Transformer.331242060_331722544 phases=3 windings=2 Xhl=3.770
~ wdg=1 bus=node_424949502.1.2.3 conn=delta Kv=13.8 Kva=75.0 %R=0.670
~ wdg=2 bus=node_413850556.1.2.3.4 conn=wye Kv=0.2200 Kva=75.0 %R=0.670
New Transformer.331241679_331573295 phases=3 windings=2 Xhl=3.770
~ wdg=1 bus=node_438784634.1.2.3 conn=delta Kv=13.8 Kva=75.0 %R=0.670
~ wdg=2 bus=node_413874498.1.2.3.4 conn=wye Kv=0.2200 Kva=75.0 %R=0.670
New Transformer.331241712_1068966530 phases=3 windings=2 Xhl=3.770
~ wdg=1 bus=node_425505353.1.2.3 conn=delta Kv=13.8 Kva=75.0 %R=0.670
~ wdg=2 bus=node_418068830.1.2.3.4 conn=wye Kv=0.2200 Kva=75.0 %R=0.670
New Transformer.1204484176_1204484177 phases=3 windings=2 Xhl=3.770
~ wdg=1 bus=node_436648170.1.2.3 conn=delta Kv=13.8 Kva=75.0 %R=0.670
~ wdg=2 bus=node_463187382.1.2.3.4 conn=wye Kv=0.2200 Kva=75.0 %R=0.670
New Transformer.331241451_331764770 phases=3 windings=2 Xhl=3.770
~ wdg=1 bus=node_428149570.1.2.3 conn=delta Kv=13.8 Kva=75.0 %R=0.670
~ wdg=2 bus=node_415419577.1.2.3.4 conn=wye Kv=0.2200 Kva=75.0 %R=0.670
New Transformer.331241440_331731332 phases=3 windings=2 Xhl=3.770
~ wdg=1 bus=node_438956060.1.2.3 conn=delta Kv=13.8 Kva=75.0 %R=0.670
~ wdg=2 bus=node_413873343.1.2.3.4 conn=wye Kv=0.2200 Kva=75.0 %R=0.670
New Transformer.331241472_331724139 phases=3 windings=2 Xhl=3.770
~ wdg=1 bus=node_438227763.1.2.3 conn=delta Kv=13.8 Kva=75.0 %R=0.670
~ wdg=2 bus=node_413849911.1.2.3.4 conn=wye Kv=0.2200 Kva=75.0 %R=0.670
New Transformer.331241462_331779932 phases=3 windings=2 Xhl=3.770
~ wdg=1 bus=node_425077518.1.2.3 conn=delta Kv=13.8 Kva=75.0 %R=0.670
~ wdg=2 bus=node_413810754.1.2.3.4 conn=wye Kv=0.2200 Kva=75.0 %R=0.670
New Transformer.331242752_1362142803 phases=3 windings=2 Xhl=3.770
~ wdg=1 bus=node_438957035.1.2.3 conn=delta Kv=13.8 Kva=75.0 %R=0.670
~ wdg=2 bus=node_413809431.1.2.3.4 conn=wye Kv=0.2200 Kva=75.0 %R=0.670
New Transformer.331242303_331722537 phases=3 windings=2 Xhl=3.770
~ wdg=1 bus=node_444788967.1.2.3 conn=delta Kv=13.8 Kva=75.0 %R=0.670
~ wdg=2 bus=node_413850457.1.2.3.4 conn=wye Kv=0.2200 Kva=75.0 %R=0.670
New Transformer.331242674_331573441 phases=3 windings=2 Xhl=3.770
~ wdg=1 bus=node_437715940.1.2.3 conn=delta Kv=13.8 Kva=75.0 %R=0.670
~ wdg=2 bus=node_413811609.1.2.3.4 conn=wye Kv=0.2200 Kva=75.0 %R=0.670
New Transformer.331242416_331763106 phases=3 windings=2 Xhl=3.770
~ wdg=1 bus=node_428147336.1.2.3 conn=delta Kv=13.8 Kva=75.0 %R=0.670
~ wdg=2 bus=node_413811642.1.2.3.4 conn=wye Kv=0.2200 Kva=75.0 %R=0.670
New Transformer.331242694_1336653506 phases=3 windings=2 Xhl=3.770
~ wdg=1 bus=node_436648010.1.2.3 conn=delta Kv=13.8 Kva=75.0 %R=0.670
~ wdg=2 bus=node_413788208.1.2.3.4 conn=wye Kv=0.2200 Kva=75.0 %R=0.670
New Transformer.331242437_331766704 phases=3 windings=2 Xhl=3.770
~ wdg=1 bus=node_425077228.1.2.3 conn=delta Kv=13.8 Kva=75.0 %R=0.670
~ wdg=2 bus=node_413811639.1.2.3.4 conn=wye Kv=0.2200 Kva=75.0 %R=0.670
New Transformer.331242814_331731462 phases=3 windings=2 Xhl=3.770
~ wdg=1 bus=node_424634804.1.2.3 conn=delta Kv=13.8 Kva=75.0 %R=0.670
~ wdg=2 bus=node_418068182.1.2.3.4 conn=wye Kv=0.2200 Kva=75.0 %R=0.670
New Transformer.331242815_331763097 phases=3 windings=2 Xhl=3.770
~ wdg=1 bus=node_424949818.1.2.3 conn=delta Kv=13.8 Kva=75.0 %R=0.670
~ wdg=2 bus=node_413873310.1.2.3.4 conn=wye Kv=0.2200 Kva=75.0 %R=0.670
New Transformer.331242202_331729734 phases=3 windings=2 Xhl=3.770
~ wdg=1 bus=node_429434872.1.2.3 conn=delta Kv=13.8 Kva=75.0 %R=0.670
~ wdg=2 bus=node_416173132.1.2.3.4 conn=wye Kv=0.2200 Kva=75.0 %R=0.670
New Transformer.331242182_331779880 phases=3 windings=2 Xhl=3.770
~ wdg=1 bus=node_444951582.1.2.3 conn=delta Kv=13.8 Kva=75.0 %R=0.670
~ wdg=2 bus=node_413875554.1.2.3.4 conn=wye Kv=0.2200 Kva=75.0 %R=0.670
New Transformer.331242246_331722533 phases=3 windings=2 Xhl=3.770
~ wdg=1 bus=node_424847886.1.2.3 conn=delta Kv=13.8 Kva=75.0 %R=0.670
~ wdg=2 bus=node_423629633.1.2.3.4 conn=wye Kv=0.2200 Kva=75.0 %R=0.670
New Transformer.331242251_331573412 phases=3 windings=2 Xhl=3.770
~ wdg=1 bus=node_438056197.1.2.3 conn=delta Kv=13.8 Kva=75.0 %R=0.670
~ wdg=2 bus=node_413789450.1.2.3.4 conn=wye Kv=0.2200 Kva=75.0 %R=0.670
New Transformer.331242158_331779905 phases=3 windings=2 Xhl=3.770
~ wdg=1 bus=node_444879985.1.2.3 conn=delta Kv=13.8 Kva=75.0 %R=0.670
~ wdg=2 bus=node_413847901.1.2.3.4 conn=wye Kv=0.2200 Kva=75.0 %R=0.670
New Transformer.331242261_498159822 phases=3 windings=2 Xhl=3.770
~ wdg=1 bus=node_434920042.1.2.3 conn=delta Kv=13.8 Kva=75.0 %R=0.670
~ wdg=2 bus=node_413810184.1.2.3.4 conn=wye Kv=0.2200 Kva=75.0 %R=0.670
New Transformer.331241855_331731582 phases=3 windings=2 Xhl=3.770
~ wdg=1 bus=node_444789547.1.2.3 conn=delta Kv=13.8 Kva=75.0 %R=0.670
~ wdg=2 bus=node_413848660.1.2.3.4 conn=wye Kv=0.2200 Kva=75.0 %R=0.670
New Transformer.331243252_331763095 phases=3 windings=2 Xhl=3.770
~ wdg=1 bus=node_444880026.1.2.3 conn=delta Kv=13.8 Kva=75.0 %R=0.670
~ wdg=2 bus=node_413849908.1.2.3.4 conn=wye Kv=0.2200 Kva=75.0 %R=0.670
New Transformer.331243270_331777895 phases=3 windings=2 Xhl=3.770
~ wdg=1 bus=node_428149210.1.2.3 conn=delta Kv=13.8 Kva=75.0 %R=0.670
~ wdg=2 bus=node_416054890.1.2.3.4 conn=wye Kv=0.2200 Kva=75.0 %R=0.670
New Transformer.331242986_2168281064 phases=3 windings=2 Xhl=3.770
~ wdg=1 bus=node_434664388.1.2.3 conn=delta Kv=13.8 Kva=75.0 %R=0.670
~ wdg=2 bus=node_415975487.1.2.3.4 conn=wye Kv=0.2200 Kva=75.0 %R=0.670
New Transformer.331243030_331779881 phases=3 windings=2 Xhl=3.770
~ wdg=1 bus=node_424948548.1.2.3 conn=delta Kv=13.8 Kva=75.0 %R=0.670
~ wdg=2 bus=node_413874708.1.2.3.4 conn=wye Kv=0.2200 Kva=75.0 %R=0.670
New Transformer.331243009_331721052 phases=3 windings=2 Xhl=3.770
~ wdg=1 bus=node_424633924.1.2.3 conn=delta Kv=13.8 Kva=75.0 %R=0.670
~ wdg=2 bus=node_416009829.1.2.3.4 conn=wye Kv=0.2200 Kva=75.0 %R=0.670
New Transformer.331243094_331763141 phases=3 windings=2 Xhl=3.770
~ wdg=1 bus=node_424950587.1.2.3 conn=delta Kv=13.8 Kva=75.0 %R=0.670
~ wdg=2 bus=node_413876886.1.2.3.4 conn=wye Kv=0.2200 Kva=75.0 %R=0.670
New Transformer.331242551_331779931 phases=3 windings=2 Xhl=3.770
~ wdg=1 bus=node_425077398.1.2.3 conn=delta Kv=13.8 Kva=75.0 %R=0.670
~ wdg=2 bus=node_413826513.1.2.3.4 conn=wye Kv=0.2200 Kva=75.0 %R=0.670
New Transformer.331242515_2020142395 phases=3 windings=2 Xhl=3.770
~ wdg=1 bus=node_424951018.1.2.3 conn=delta Kv=13.8 Kva=75.0 %R=0.670
~ wdg=2 bus=node_460109657.1.2.3.4 conn=wye Kv=0.2200 Kva=75.0 %R=0.670
New Transformer.331242912_331722566 phases=3 windings=2 Xhl=3.770
~ wdg=1 bus=node_424949837.1.2.3 conn=delta Kv=13.8 Kva=75.0 %R=0.670
~ wdg=2 bus=node_413848678.1.2.3.4 conn=wye Kv=0.2200 Kva=75.0 %R=0.670
New Transformer.331242853_331763720 phases=3 windings=2 Xhl=3.770
~ wdg=1 bus=node_434663386.1.2.3 conn=delta Kv=13.8 Kva=75.0 %R=0.670
~ wdg=2 bus=node_527574068.1.2.3.4 conn=wye Kv=0.2200 Kva=75.0 %R=0.670
New Transformer.331243144_331779803 phases=3 windings=2 Xhl=3.770
~ wdg=1 bus=node_437367036.1.2.3 conn=delta Kv=13.8 Kva=75.0 %R=0.670
~ wdg=2 bus=node_417230192.1.2.3.4 conn=wye Kv=0.2200 Kva=75.0 %R=0.670
New Transformer.331243148_331763135 phases=3 windings=2 Xhl=3.770
~ wdg=1 bus=node_424634013.1.2.3 conn=delta Kv=13.8 Kva=75.0 %R=0.670
~ wdg=2 bus=node_413768878.1.2.3.4 conn=wye Kv=0.2200 Kva=75.0 %R=0.670
New Transformer.331243170_1047882279 phases=3 windings=2 Xhl=3.770
~ wdg=1 bus=node_424948993.1.2.3 conn=delta Kv=13.8 Kva=75.0 %R=0.670
~ wdg=2 bus=node_413875485.1.2.3.4 conn=wye Kv=0.2200 Kva=75.0 %R=0.670
New Transformer.331243210_331731617 phases=3 windings=2 Xhl=3.770
~ wdg=1 bus=node_424634388.1.2.3 conn=delta Kv=13.8 Kva=75.0 %R=0.670
~ wdg=2 bus=node_413769502.1.2.3.4 conn=wye Kv=0.2200 Kva=75.0 %R=0.670
New Transformer.331243211_1087537087 phases=3 windings=2 Xhl=3.770
~ wdg=1 bus=node_427918983.1.2.3 conn=delta Kv=13.8 Kva=75.0 %R=0.670
~ wdg=2 bus=node_413789933.1.2.3.4 conn=wye Kv=0.2200 Kva=75.0 %R=0.670
New Transformer.1862668741_1862668740 phases=3 windings=2 Xhl=3.770
~ wdg=1 bus=node_2183748439.1.2.3 conn=delta Kv=13.8 Kva=75.0 %R=0.670
~ wdg=2 bus=node_2183748425.1.2.3.4 conn=wye Kv=0.2200 Kva=75.0 %R=0.670
New Transformer.935483028_935483044 phases=3 windings=2 Xhl=3.770
~ wdg=1 bus=node_1195529884.1.2.3 conn=delta Kv=13.8 Kva=75.0 %R=0.670
...